Circuit: * C:\Users\verme\Desktop\RatDistortion\Draft1.asc

Direct Newton iteration for .op point succeeded.

Date: Tue Dec 14 21:50:49 2021
Total elapsed time: 0.028 seconds.

tnom = 27
temp = 27
method = modified trap
totiter = 2272
traniter = 2269
tranpoints = 1135
accept = 1120
rejected = 15
matrix size = 4
fillins = 0
solver = Normal
Matrix Compiler1: 82 bytes object code size  0.1/0.0/[0.0]
Matrix Compiler2: off  [0.0]/0.0/0.0

