Circuit: * C:\Users\verme\Desktop\RatDistortion\Simulation (LTspice)\distortion sim.asc

Direct Newton iteration failed to find .op point.  (Use ".option noopiter" to skip.)
Starting Gmin stepping
Gmin = 10
Gmin = 1.07374
Gmin = 0.115292
Gmin = 0.0123794
Gmin = 0.00132923
Gmin = 0.000142725
Gmin = 1.5325e-005
Gmin = 1.6455e-006
vernier = 0.5
Gmin = 3.06744e-007
vernier = 0.666667
Gmin = 7.59426e-008
vernier = 0.888888
vernier = 1
Gmin = 9.33136e-009
Gmin = 1.00195e-009
Gmin = 1.07583e-010
Gmin = 1.15517e-011
Gmin = 1.24035e-012
Gmin = 1.33182e-013
Gmin = 0
Gmin stepping succeeded in finding the operating point.


Date: Wed Dec 29 17:19:37 2021
Total elapsed time: 0.135 seconds.

tnom = 27
temp = 27
method = modified trap
totiter = 3479
traniter = 2943
tranpoints = 1314
accept = 1222
rejected = 92
matrix size = 40
fillins = 4
solver = Normal
Matrix Compiler1: 1.83 KB object code size  0.5/0.3/[0.2]
Matrix Compiler2: 3.00 KB object code size  0.4/0.5/[0.3]

