Circuit: * C:\Users\verme\Desktop\RatDistortion\Simulation (LTspice)\distortion sim.asc

Direct Newton iteration failed to find .op point.  (Use ".option noopiter" to skip.)
Starting Gmin stepping
Gmin = 10
Gmin = 1.07374
Gmin = 0.115292
Gmin = 0.0123794
Gmin = 0.00132923
Gmin = 0.000142725
Gmin = 1.5325e-005
Gmin = 1.6455e-006
vernier = 0.5
Gmin = 3.06744e-007
vernier = 0.666667
Gmin = 7.59426e-008
vernier = 0.888888
vernier = 1
Gmin = 9.33136e-009
Gmin = 1.00195e-009
Gmin = 1.07583e-010
Gmin = 1.15517e-011
Gmin = 1.24035e-012
Gmin = 1.33182e-013
Gmin = 0
Gmin stepping succeeded in finding the operating point.


Date: Wed Dec 15 19:10:16 2021
Total elapsed time: 0.146 seconds.

tnom = 27
temp = 27
method = modified trap
totiter = 3282
traniter = 2737
tranpoints = 1225
accept = 1147
rejected = 78
matrix size = 28
fillins = 4
solver = Normal
Matrix Compiler1: 1.48 KB object code size  0.3/0.2/[0.2]
Matrix Compiler2: 2.20 KB object code size  0.2/0.3/[0.2]

